# generated using pymatgen
data_Ti112Mo
_symmetry_space_group_name_H-M   'P 1'
_cell_length_a   11.49118042
_cell_length_b   9.07275009
_cell_length_c   18.14600945
_cell_angle_alpha   90.00000000
_cell_angle_beta   90.00000000
_cell_angle_gamma   90.00000000
_symmetry_Int_Tables_number   1
_chemical_formula_structural   Ti112Mo
_chemical_formula_sum   'Ti112 Mo1'
_cell_volume   1891.84139727
_cell_formula_units_Z   1
loop_
 _symmetry_equiv_pos_site_id
 _symmetry_equiv_pos_as_xyz
  1  'x, y, z'
loop_
 _atom_site_type_symbol
 _atom_site_label
 _atom_site_symmetry_multiplicity
 _atom_site_fract_x
 _atom_site_fract_y
 _atom_site_fract_z
 _atom_site_occupancy
  Ti  Ti0  1  0.020833  0.875000  0.514331  1
  Ti  Ti1  1  0.520833  0.875000  0.514331  1
  Ti  Ti2  1  0.020833  0.375000  0.514331  1
  Ti  Ti3  1  0.520833  0.375000  0.514331  1
  Ti  Ti4  1  0.270833  0.875000  0.514331  1
  Ti  Ti5  1  0.770833  0.875000  0.514331  1
  Ti  Ti6  1  0.270833  0.375000  0.514331  1
  Ti  Ti7  1  0.770833  0.375000  0.514331  1
  Ti  Ti8  1  0.145834  0.625000  0.561090  1
  Ti  Ti9  1  0.645834  0.625000  0.561090  1
  Ti  Ti10  1  0.145834  0.125000  0.561090  1
  Ti  Ti11  1  0.645834  0.125000  0.561090  1
  Ti  Ti12  1  0.395833  0.625000  0.561090  1
  Ti  Ti13  1  0.895833  0.625000  0.561090  1
  Ti  Ti14  1  0.395833  0.125000  0.561090  1
  Ti  Ti15  1  0.895833  0.125000  0.561090  1
  Ti  Ti16  1  0.145834  0.875000  0.374058  1
  Ti  Ti17  1  0.645834  0.875000  0.374058  1
  Ti  Ti18  1  0.145834  0.375000  0.374058  1
  Ti  Ti19  1  0.645834  0.375000  0.374058  1
  Ti  Ti20  1  0.395833  0.875000  0.374058  1
  Ti  Ti21  1  0.895833  0.875000  0.374058  1
  Ti  Ti22  1  0.395833  0.375000  0.374058  1
  Ti  Ti23  1  0.895833  0.375000  0.374058  1
  Ti  Ti24  1  0.020833  0.625000  0.420817  1
  Ti  Ti25  1  0.520833  0.625000  0.420817  1
  Ti  Ti26  1  0.020833  0.125000  0.420817  1
  Ti  Ti27  1  0.520833  0.125000  0.420817  1
  Ti  Ti28  1  0.270833  0.625000  0.420817  1
  Ti  Ti29  1  0.770833  0.625000  0.420817  1
  Ti  Ti30  1  0.270833  0.125000  0.420817  1
  Ti  Ti31  1  0.770833  0.125000  0.420817  1
  Ti  Ti32  1  0.020833  0.875000  0.233787  1
  Ti  Ti33  1  0.520833  0.875000  0.233787  1
  Ti  Ti34  1  0.020833  0.375000  0.233787  1
  Ti  Ti35  1  0.520833  0.375000  0.233787  1
  Ti  Ti36  1  0.270833  0.875000  0.233787  1
  Ti  Ti37  1  0.770833  0.875000  0.233787  1
  Ti  Ti38  1  0.270833  0.375000  0.233787  1
  Ti  Ti39  1  0.770833  0.375000  0.233787  1
  Ti  Ti40  1  0.145834  0.625000  0.280544  1
  Ti  Ti41  1  0.645834  0.625000  0.280544  1
  Ti  Ti42  1  0.145834  0.125000  0.280544  1
  Ti  Ti43  1  0.645834  0.125000  0.280544  1
  Ti  Ti44  1  0.395833  0.625000  0.280544  1
  Ti  Ti45  1  0.895833  0.625000  0.280544  1
  Ti  Ti46  1  0.395833  0.125000  0.280544  1
  Ti  Ti47  1  0.895833  0.125000  0.280544  1
  Ti  Ti48  1  0.145834  0.875000  0.093514  1
  Ti  Ti49  1  0.645834  0.875000  0.093514  1
  Ti  Ti50  1  0.145834  0.375000  0.093514  1
  Ti  Ti51  1  0.645834  0.375000  0.093514  1
  Ti  Ti52  1  0.395833  0.875000  0.093514  1
  Ti  Ti53  1  0.895833  0.875000  0.093514  1
  Ti  Ti54  1  0.395833  0.375000  0.093514  1
  Ti  Ti55  1  0.895833  0.375000  0.093514  1
  Ti  Ti56  1  0.020833  0.625000  0.140273  1
  Ti  Ti57  1  0.520833  0.625000  0.140273  1
  Ti  Ti58  1  0.020833  0.125000  0.140273  1
  Ti  Ti59  1  0.520833  0.125000  0.140273  1
  Ti  Ti60  1  0.270833  0.625000  0.140273  1
  Ti  Ti61  1  0.770833  0.625000  0.140273  1
  Ti  Ti62  1  0.270833  0.125000  0.140273  1
  Ti  Ti63  1  0.770833  0.125000  0.140273  1
  Ti  Ti64  1  0.229166  0.625000  0.707395  1
  Ti  Ti65  1  0.729166  0.625000  0.707395  1
  Ti  Ti66  1  0.229166  0.125000  0.707395  1
  Ti  Ti67  1  0.729166  0.125000  0.707395  1
  Ti  Ti68  1  0.479167  0.625000  0.707395  1
  Ti  Ti69  1  0.979167  0.625000  0.707395  1
  Ti  Ti70  1  0.479167  0.125000  0.707395  1
  Ti  Ti71  1  0.979167  0.125000  0.707395  1
  Ti  Ti72  1  0.062500  0.625000  0.853698  1
  Ti  Ti73  1  0.562500  0.625000  0.853698  1
  Ti  Ti74  1  0.062500  0.125000  0.853698  1
  Ti  Ti75  1  0.562500  0.125000  0.853698  1
  Ti  Ti76  1  0.312500  0.625000  0.853698  1
  Ti  Ti77  1  0.812500  0.625000  0.853698  1
  Ti  Ti78  1  0.312500  0.125000  0.853698  1
  Ti  Ti79  1  0.812500  0.125000  0.853698  1
  Ti  Ti80  1  0.062500  0.875000  0.634242  1
  Ti  Ti81  1  0.562500  0.875000  0.634242  1
  Ti  Ti82  1  0.062500  0.375000  0.634242  1
  Ti  Ti83  1  0.562500  0.375000  0.634242  1
  Ti  Ti84  1  0.312500  0.875000  0.634242  1
  Ti  Ti85  1  0.812500  0.875000  0.634242  1
  Ti  Ti86  1  0.312500  0.375000  0.634242  1
  Ti  Ti87  1  0.812500  0.375000  0.634242  1
  Ti  Ti88  1  0.145834  0.875000  0.780546  1
  Ti  Ti89  1  0.645834  0.875000  0.780546  1
  Ti  Ti90  1  0.145834  0.375000  0.780546  1
  Ti  Ti91  1  0.645834  0.375000  0.780546  1
  Ti  Ti92  1  0.395833  0.875000  0.780546  1
  Ti  Ti93  1  0.895833  0.875000  0.780546  1
  Ti  Ti94  1  0.395833  0.375000  0.780546  1
  Ti  Ti95  1  0.895833  0.375000  0.780546  1
  Ti  Ti96  1  0.229166  0.875000  0.926851  1
  Ti  Ti97  1  0.729166  0.875000  0.926851  1
  Ti  Ti98  1  0.229166  0.375000  0.926851  1
  Ti  Ti99  1  0.729166  0.375000  0.926851  1
  Ti  Ti100  1  0.479167  0.875000  0.926851  1
  Ti  Ti101  1  0.979167  0.875000  0.926851  1
  Ti  Ti102  1  0.479167  0.375000  0.926851  1
  Ti  Ti103  1  0.979167  0.375000  0.926851  1
  Ti  Ti104  1  0.395833  0.125000  0.000000  1
  Ti  Ti105  1  0.895833  0.125000  0.000000  1
  Ti  Ti106  1  0.145834  0.125000  0.000000  1
  Ti  Ti107  1  0.645834  0.125000  0.000000  1
  Ti  Ti108  1  0.395833  0.625000  0.000000  1
  Ti  Ti109  1  0.895833  0.625000  0.000000  1
  Ti  Ti110  1  0.145834  0.625000  0.000000  1
  Ti  Ti111  1  0.645834  0.625000  0.000000  1
  Mo  Mo112  1  0.409722  0.375000  0.569888  1
