#======================================================================

# CRYSTAL DATA

#----------------------------------------------------------------------

data_VESTA_phase_1


_chemical_name_common                  'VASP @ Device Studio'
_cell_length_a                         9.58831
_cell_length_b                         9.58831
_cell_length_c                         19.00000
_cell_angle_alpha                      90
_cell_angle_beta                       90
_cell_angle_gamma                      90
_space_group_name_H-M_alt              'P 1'
_space_group_IT_number                 1

loop_
_space_group_symop_operation_xyz
   'x, y, z'

loop_
   _atom_site_label
   _atom_site_occupancy
   _atom_site_fract_x
   _atom_site_fract_y
   _atom_site_fract_z
   _atom_site_adp_type
   _atom_site_B_iso_or_equiv
   _atom_site_type_symbol
   Ti1        1.0     0.083333      0.083333      0.500000     Biso  1.000000 Ti
   Ti2        1.0     0.083333      0.083333      0.657895     Biso  1.000000 Ti
   Ti3        1.0     0.083333      0.083333      0.815789     Biso  1.000000 Ti
   Ti4        1.0     0.083333      0.416667      0.500000     Biso  1.000000 Ti
   Ti5        1.0     0.083333      0.416667      0.657895     Biso  1.000000 Ti
   Ti6        1.0     0.083333      0.416667      0.815789     Biso  1.000000 Ti
   Ti7        1.0     0.083333      0.750000      0.500000     Biso  1.000000 Ti
   Ti8        1.0     0.083333      0.750000      0.657895     Biso  1.000000 Ti
   Ti9        1.0     0.083333      0.750000      0.815789     Biso  1.000000 Ti
   Ti10       1.0     0.416667      0.083333      0.500000     Biso  1.000000 Ti
   Ti11       1.0     0.416667      0.083333      0.657895     Biso  1.000000 Ti
   Ti12       1.0     0.416667      0.083333      0.815789     Biso  1.000000 Ti
   Ti13       1.0     0.416667      0.416667      0.500000     Biso  1.000000 Ti
   Ti14       1.0     0.416667      0.416667      0.657895     Biso  1.000000 Ti
   Ti15       1.0     0.416667      0.416667      0.815789     Biso  1.000000 Ti
   Ti16       1.0     0.416667      0.750000      0.500000     Biso  1.000000 Ti
   Ti17       1.0     0.416667      0.750000      0.657895     Biso  1.000000 Ti
   Ti18       1.0     0.416667      0.750000      0.815789     Biso  1.000000 Ti
   Ti19       1.0     0.750000      0.083333      0.500000     Biso  1.000000 Ti
   Ti20       1.0     0.750000      0.083333      0.657895     Biso  1.000000 Ti
   Ti21       1.0     0.750000      0.083333      0.815789     Biso  1.000000 Ti
   Ti22       1.0     0.750000      0.416667      0.500000     Biso  1.000000 Ti
   Ti23       1.0     0.750000      0.416667      0.657895     Biso  1.000000 Ti
   Ti24       1.0     0.750000      0.416667      0.815789     Biso  1.000000 Ti
   Ti25       1.0     0.750000      0.750000      0.500000     Biso  1.000000 Ti
   Ti26       1.0     0.750000      0.750000      0.657895     Biso  1.000000 Ti
   Ti27       1.0     0.750000      0.750000      0.815789     Biso  1.000000 Ti
   Ti28       1.0     0.250000      0.250000      0.578947     Biso  1.000000 Ti
   Ti29       1.0     0.250000      0.250000      0.736842     Biso  1.000000 Ti
   Ti30       1.0     0.250000      0.250000      0.894737     Biso  1.000000 Ti
   Ti31       1.0     0.250000      0.583333      0.578947     Biso  1.000000 Ti
   Ti32       1.0     0.250000      0.583333      0.736842     Biso  1.000000 Ti
   Ti33       1.0     0.250000      0.583333      0.894737     Biso  1.000000 Ti
   Ti34       1.0     0.250000      0.916667      0.578947     Biso  1.000000 Ti
   Ti35       1.0     0.250000      0.916667      0.736842     Biso  1.000000 Ti
   Ti36       1.0     0.250000      0.916667      0.894737     Biso  1.000000 Ti
   Ti37       1.0     0.583333      0.250000      0.578947     Biso  1.000000 Ti
   Ti38       1.0     0.583333      0.250000      0.736842     Biso  1.000000 Ti
   Ti39       1.0     0.583333      0.250000      0.894737     Biso  1.000000 Ti
   Ti40       1.0     0.583333      0.583333      0.578947     Biso  1.000000 Ti
   Ti41       1.0     0.583333      0.583333      0.736842     Biso  1.000000 Ti
   Ti42       1.0     0.583333      0.583333      0.894737     Biso  1.000000 Ti
   Ti43       1.0     0.583333      0.916667      0.578947     Biso  1.000000 Ti
   Ti44       1.0     0.583333      0.916667      0.736842     Biso  1.000000 Ti
   Ti45       1.0     0.583333      0.916667      0.894737     Biso  1.000000 Ti
   Ti46       1.0     0.916667      0.250000      0.578947     Biso  1.000000 Ti
   Ti47       1.0     0.916667      0.250000      0.736842     Biso  1.000000 Ti
   Ti48       1.0     0.916667      0.250000      0.894737     Biso  1.000000 Ti
   Ti49       1.0     0.916667      0.583333      0.578947     Biso  1.000000 Ti
   Ti50       1.0     0.916667      0.583333      0.736842     Biso  1.000000 Ti
   Ti51       1.0     0.916667      0.583333      0.894737     Biso  1.000000 Ti
   Ti52       1.0     0.916667      0.916667      0.578947     Biso  1.000000 Ti
   Ti53       1.0     0.916667      0.916667      0.736842     Biso  1.000000 Ti
   Ti54       1.0     0.916667      0.916667      0.894737     Biso  1.000000 Ti
   Ti55       1.0     0.125000      0.833333      0.000000     Biso  1.000000 Ti
   Ti56       1.0     0.125000      0.333333      0.000000     Biso  1.000000 Ti
   Ti57       1.0     0.625000      0.833333      0.000000     Biso  1.000000 Ti
   Ti58       1.0     0.625000      0.333333      0.000000     Biso  1.000000 Ti
   Ti59       1.0     0.375000      0.666667      0.000000     Biso  1.000000 Ti
   Ti60       1.0     0.375000      0.166667      0.000000     Biso  1.000000 Ti
   Ti61       1.0     0.875000      0.666667      0.000000     Biso  1.000000 Ti
   Ti62       1.0     0.875000      0.166667      0.000000     Biso  1.000000 Ti
   Ti63       1.0     0.875000      0.416667      0.078947     Biso  1.000000 Ti
   Ti64       1.0     0.375000      0.416667      0.078947     Biso  1.000000 Ti
   Ti65       1.0     0.875000      0.916667      0.078947     Biso  1.000000 Ti
   Ti66       1.0     0.375000      0.916667      0.078947     Biso  1.000000 Ti
   Ti67       1.0     0.625000      0.083333      0.078947     Biso  1.000000 Ti
   Ti68       1.0     0.125000      0.083333      0.078947     Biso  1.000000 Ti
   Ti69       1.0     0.625000      0.583333      0.078947     Biso  1.000000 Ti
   Ti70       1.0     0.125000      0.583333      0.078947     Biso  1.000000 Ti
   Ti71       1.0     0.125000      0.333333      0.157895     Biso  1.000000 Ti
   Ti72       1.0     0.625000      0.333333      0.157895     Biso  1.000000 Ti
   Ti73       1.0     0.625000      0.833333      0.157895     Biso  1.000000 Ti
   Ti74       1.0     0.125000      0.833333      0.157895     Biso  1.000000 Ti
   Ti75       1.0     0.875000      0.666667      0.157895     Biso  1.000000 Ti
   Ti76       1.0     0.375000      0.166667      0.157895     Biso  1.000000 Ti
   Ti77       1.0     0.875000      0.166667      0.157895     Biso  1.000000 Ti
   Ti78       1.0     0.375000      0.666667      0.157895     Biso  1.000000 Ti
   Ti79       1.0     0.875000      0.416667      0.236842     Biso  1.000000 Ti
   Ti80       1.0     0.375000      0.416667      0.236842     Biso  1.000000 Ti
   Ti81       1.0     0.875000      0.916667      0.236842     Biso  1.000000 Ti
   Ti82       1.0     0.375000      0.916667      0.236842     Biso  1.000000 Ti
   Ti83       1.0     0.125000      0.583333      0.236842     Biso  1.000000 Ti
   Ti84       1.0     0.625000      0.083333      0.236842     Biso  1.000000 Ti
   Ti85       1.0     0.125000      0.083333      0.236842     Biso  1.000000 Ti
   Ti86       1.0     0.625000      0.583333      0.236842     Biso  1.000000 Ti
   Ti87       1.0     0.625000      0.833333      0.315789     Biso  1.000000 Ti
   Ti88       1.0     0.625000      0.333333      0.315789     Biso  1.000000 Ti
   Ti89       1.0     0.125000      0.833333      0.315789     Biso  1.000000 Ti
   Ti90       1.0     0.125000      0.333333      0.315789     Biso  1.000000 Ti
   Ti91       1.0     0.375000      0.166667      0.315789     Biso  1.000000 Ti
   Ti92       1.0     0.875000      0.166667      0.315789     Biso  1.000000 Ti
   Ti93       1.0     0.375000      0.666667      0.315789     Biso  1.000000 Ti
   Ti94       1.0     0.875000      0.666667      0.315789     Biso  1.000000 Ti
   Ti95       1.0     0.875000      0.416667      0.394737     Biso  1.000000 Ti
   Ti96       1.0     0.375000      0.416667      0.394737     Biso  1.000000 Ti
   Ti97       1.0     0.375000      0.916667      0.394737     Biso  1.000000 Ti
   Ti98       1.0     0.875000      0.916667      0.394737     Biso  1.000000 Ti
   Ti99       1.0     0.625000      0.583333      0.394737     Biso  1.000000 Ti
   Ti100      1.0     0.625000      0.083333      0.394737     Biso  1.000000 Ti
   Ti101      1.0     0.125000      0.583333      0.394737     Biso  1.000000 Ti
   Ti102      1.0     0.125000      0.083333      0.394737     Biso  1.000000 Ti
