# generated using pymatgen
data_Ti96Nb
_symmetry_space_group_name_H-M   'P 1'
_cell_length_a   9.51302000
_cell_length_b   9.35086000
_cell_length_c   18.54723000
_cell_angle_alpha   90.00000000
_cell_angle_beta   90.00000000
_cell_angle_gamma   90.00000000
_symmetry_Int_Tables_number   1
_chemical_formula_structural   Ti96Nb
_chemical_formula_sum   'Ti96 Nb1'
_cell_volume   1649.86732743
_cell_formula_units_Z   1
loop_
 _symmetry_equiv_pos_site_id
 _symmetry_equiv_pos_as_xyz
  1  'x, y, z'
loop_
 _atom_site_type_symbol
 _atom_site_label
 _atom_site_symmetry_multiplicity
 _atom_site_fract_x
 _atom_site_fract_y
 _atom_site_fract_z
 _atom_site_occupancy
  Ti  Ti0  1  0.147115  0.375381  0.398682  1
  Ti  Ti1  1  0.649569  0.377363  0.400261  1
  Ti  Ti2  1  0.163435  0.889089  0.390503  1
  Ti  Ti3  1  0.653944  0.900105  0.409486  1
  Ti  Ti4  1  0.161807  0.378238  0.237488  1
  Ti  Ti5  1  0.661137  0.377239  0.234139  1
  Ti  Ti6  1  0.158386  0.875730  0.235334  1
  Ti  Ti7  1  0.662122  0.876411  0.232546  1
  Ti  Ti8  1  0.166659  0.374997  0.077681  1
  Ti  Ti9  1  0.666665  0.374994  0.077684  1
  Ti  Ti10  1  0.166671  0.874996  0.077691  1
  Ti  Ti11  1  0.666673  0.874994  0.077695  1
  Ti  Ti12  1  0.412772  0.371353  0.315870  1
  Ti  Ti13  1  0.904223  0.376507  0.315202  1
  Ti  Ti14  1  0.415006  0.872243  0.317548  1
  Ti  Ti15  1  0.897415  0.870133  0.319851  1
  Ti  Ti16  1  0.416658  0.374992  0.155340  1
  Ti  Ti17  1  0.916649  0.374984  0.155351  1
  Ti  Ti18  1  0.416681  0.875016  0.155343  1
  Ti  Ti19  1  0.916698  0.874964  0.155346  1
  Ti  Ti20  1  0.416663  0.375008  -0.000006  1
  Ti  Ti21  1  0.916657  0.375005  -0.000001  1
  Ti  Ti22  1  0.416669  0.874998  0.000002  1
  Ti  Ti23  1  0.916660  0.874994  0.000009  1
  Ti  Ti24  1  0.087228  0.128647  0.315869  1
  Ti  Ti25  1  0.595777  0.123494  0.315201  1
  Ti  Ti26  1  0.084994  0.627757  0.317547  1
  Ti  Ti27  1  0.602585  0.629868  0.319850  1
  Ti  Ti28  1  0.083343  0.125012  0.155340  1
  Ti  Ti29  1  0.583351  0.125019  0.155351  1
  Ti  Ti30  1  0.083319  0.624986  0.155343  1
  Ti  Ti31  1  0.583301  0.625038  0.155345  1
  Ti  Ti32  1  0.083338  0.124996  -0.000006  1
  Ti  Ti33  1  0.583343  0.124999  -0.000000  1
  Ti  Ti34  1  0.083331  0.625005  0.000002  1
  Ti  Ti35  1  0.583340  0.625008  0.000008  1
  Ti  Ti36  1  0.352884  0.124619  0.398682  1
  Ti  Ti37  1  0.850430  0.122637  0.400261  1
  Ti  Ti38  1  0.336564  0.610911  0.390503  1
  Ti  Ti39  1  0.846055  0.599895  0.409486  1
  Ti  Ti40  1  0.338192  0.121762  0.237488  1
  Ti  Ti41  1  0.838862  0.122762  0.234139  1
  Ti  Ti42  1  0.341613  0.624270  0.235334  1
  Ti  Ti43  1  0.837877  0.623590  0.232546  1
  Ti  Ti44  1  0.333340  0.125007  0.077681  1
  Ti  Ti45  1  0.833334  0.125009  0.077684  1
  Ti  Ti46  1  0.333328  0.625007  0.077690  1
  Ti  Ti47  1  0.833326  0.625008  0.077694  1
  Ti  Ti48  1  0.374974  0.375021  0.823805  1
  Ti  Ti49  1  0.875006  0.375013  0.823773  1
  Ti  Ti50  1  0.375017  0.874994  0.823840  1
  Ti  Ti51  1  0.875011  0.874963  0.823787  1
  Ti  Ti52  1  0.125027  0.124978  0.823805  1
  Ti  Ti53  1  0.624995  0.124987  0.823774  1
  Ti  Ti54  1  0.124984  0.625004  0.823839  1
  Ti  Ti55  1  0.624993  0.625035  0.823786  1
  Ti  Ti56  1  0.124981  0.374997  0.910118  1
  Ti  Ti57  1  0.625011  0.375016  0.910104  1
  Ti  Ti58  1  0.124993  0.874994  0.910143  1
  Ti  Ti59  1  0.625016  0.874983  0.910125  1
  Ti  Ti60  1  0.375021  0.125003  0.910118  1
  Ti  Ti61  1  0.874990  0.124984  0.910104  1
  Ti  Ti62  1  0.375009  0.625004  0.910143  1
  Ti  Ti63  1  0.874986  0.625017  0.910123  1
  Ti  Ti64  1  0.398034  0.375591  0.646427  1
  Ti  Ti65  1  0.883002  0.345908  0.653584  1
  Ti  Ti66  1  0.369859  0.872114  0.672224  1
  Ti  Ti67  1  0.886356  0.873018  0.658328  1
  Ti  Ti68  1  0.101966  0.124408  0.646427  1
  Ti  Ti69  1  0.616998  0.154091  0.653584  1
  Ti  Ti70  1  0.130140  0.627885  0.672224  1
  Ti  Ti71  1  0.613643  0.626981  0.658328  1
  Ti  Ti72  1  0.147825  0.382402  0.574985  1
  Ti  Ti73  1  0.658775  0.405583  0.563680  1
  Ti  Ti74  1  0.143456  0.870322  0.576913  1
  Ti  Ti75  1  0.574716  0.917885  0.579709  1
  Ti  Ti76  1  0.352175  0.117598  0.574986  1
  Ti  Ti77  1  0.841225  0.094417  0.563681  1
  Ti  Ti78  1  0.356544  0.629678  0.576913  1
  Ti  Ti79  1  0.925284  0.582114  0.579709  1
  Ti  Ti80  1  0.386934  0.369767  0.488985  1
  Ti  Ti81  1  0.902519  0.346583  0.488630  1
  Ti  Ti82  1  0.375413  0.861630  0.479852  1
  Ti  Ti83  1  -0.062019  -0.116211  0.474138  1
  Ti  Ti84  1  0.113066  0.130233  0.488985  1
  Ti  Ti85  1  0.597481  0.153417  0.488630  1
  Ti  Ti86  1  0.124587  0.638370  0.479852  1
  Ti  Ti87  1  0.562019  0.616211  0.474138  1
  Ti  Ti88  1  0.125072  0.875066  0.737581  1
  Ti  Ti89  1  0.625014  0.875030  0.737525  1
  Ti  Ti90  1  0.374923  0.624925  0.737583  1
  Ti  Ti91  1  0.874983  0.624963  0.737525  1
  Ti  Ti92  1  0.125052  0.374955  0.737510  1
  Ti  Ti93  1  0.624912  0.375322  0.737510  1
  Ti  Ti94  1  0.374945  0.125040  0.737511  1
  Ti  Ti95  1  0.875086  0.124672  0.737514  1
  Nb  Nb96  1  0.750000  0.750000  0.540169  1
