#======================================================================

# CRYSTAL DATA

#----------------------------------------------------------------------

data_VESTA_phase_1


_chemical_name_common                  'Optimistic_Structure'
_cell_length_a                         8.80526
_cell_length_b                         8.80526
_cell_length_c                         22.77840
_cell_angle_alpha                      90
_cell_angle_beta                       90
_cell_angle_gamma                      120
_space_group_name_H-M_alt              'P 1'
_space_group_IT_number                 1

loop_
_space_group_symop_operation_xyz
   'x, y, z'

loop_
   _atom_site_label
   _atom_site_occupancy
   _atom_site_fract_x
   _atom_site_fract_y
   _atom_site_fract_z
   _atom_site_adp_type
   _atom_site_B_iso_or_equiv
   _atom_site_type_symbol
   Ti1        1.0     0.055556      0.055556      0.589771     Biso  1.000000 Ti
   Ti2        1.0     0.055556      0.555555      0.589771     Biso  1.000000 Ti
   Ti3        1.0     0.555556      0.055556      0.589771     Biso  1.000000 Ti
   Ti4        1.0     0.555556      0.555555      0.589771     Biso  1.000000 Ti
   Ti5        1.0     0.222222      0.388889      0.873911     Biso  1.000000 Ti
   Ti6        1.0     0.222222      0.888889      0.873911     Biso  1.000000 Ti
   Ti7        1.0     0.722222      0.388889      0.873911     Biso  1.000000 Ti
   Ti8        1.0     0.722222      0.888889      0.873911     Biso  1.000000 Ti
   Ti9        1.0     0.388889      0.222222      0.914502     Biso  1.000000 Ti
   Ti10       1.0     0.388889      0.722222      0.914502     Biso  1.000000 Ti
   Ti11       1.0     0.888889      0.222222      0.914502     Biso  1.000000 Ti
   Ti12       1.0     0.888889      0.722222      0.914502     Biso  1.000000 Ti
   Ti13       1.0     0.222222      0.388889      0.630362     Biso  1.000000 Ti
   Ti14       1.0     0.222222      0.888889      0.630362     Biso  1.000000 Ti
   Ti15       1.0     0.722222      0.388889      0.630362     Biso  1.000000 Ti
   Ti16       1.0     0.722222      0.888889      0.630362     Biso  1.000000 Ti
   Ti17       1.0     0.388889      0.222222      0.670954     Biso  1.000000 Ti
   Ti18       1.0     0.388889      0.722222      0.670954     Biso  1.000000 Ti
   Ti19       1.0     0.888889      0.222222      0.670954     Biso  1.000000 Ti
   Ti20       1.0     0.888889      0.722222      0.670954     Biso  1.000000 Ti
   Ti21       1.0     0.055556      0.055556      0.711545     Biso  1.000000 Ti
   Ti22       1.0     0.055556      0.555555      0.711545     Biso  1.000000 Ti
   Ti23       1.0     0.555556      0.055556      0.711545     Biso  1.000000 Ti
   Ti24       1.0     0.555556      0.555555      0.711545     Biso  1.000000 Ti
   Ti25       1.0     0.222222      0.388889      0.752136     Biso  1.000000 Ti
   Ti26       1.0     0.222222      0.888889      0.752136     Biso  1.000000 Ti
   Ti27       1.0     0.722222      0.388889      0.752136     Biso  1.000000 Ti
   Ti28       1.0     0.722222      0.888889      0.752136     Biso  1.000000 Ti
   Ti29       1.0     0.388889      0.222222      0.792728     Biso  1.000000 Ti
   Ti30       1.0     0.388889      0.722222      0.792728     Biso  1.000000 Ti
   Ti31       1.0     0.888889      0.222222      0.792728     Biso  1.000000 Ti
   Ti32       1.0     0.888889      0.722222      0.792728     Biso  1.000000 Ti
   Ti33       1.0     0.055556      0.055556      0.833319     Biso  1.000000 Ti
   Ti34       1.0     0.055556      0.555555      0.833319     Biso  1.000000 Ti
   Ti35       1.0     0.555556      0.055556      0.833319     Biso  1.000000 Ti
   Ti36       1.0     0.555556      0.555555      0.833319     Biso  1.000000 Ti
   Ti37       1.0     0.166666      0.944444     -0.000000     Biso  1.000000 Ti
   Ti38       1.0     0.166666      0.944444      0.403419     Biso  1.000000 Ti
   Ti39       1.0     0.166666      0.611111     -0.000000     Biso  1.000000 Ti
   Ti40       1.0     0.277778      0.833333      0.100855     Biso  1.000000 Ti
   Ti41       1.0     0.166666      0.611111      0.403419     Biso  1.000000 Ti
   Ti42       1.0     0.500000      0.944444     -0.000000     Biso  1.000000 Ti
   Ti43       1.0     0.166666      0.277778     -0.000000     Biso  1.000000 Ti
   Ti44       1.0     0.277778      0.833333      0.504274     Biso  1.000000 Ti
   Ti45       1.0     0.277778      0.500000      0.100855     Biso  1.000000 Ti
   Ti46       1.0     0.500000      0.944444      0.403419     Biso  1.000000 Ti
   Ti47       1.0     0.166666      0.277778      0.403419     Biso  1.000000 Ti
   Ti48       1.0     0.500000      0.611111     -0.000000     Biso  1.000000 Ti
   Ti49       1.0     0.277778      0.500000      0.504274     Biso  1.000000 Ti
   Ti50       1.0     0.611111      0.833333      0.100855     Biso  1.000000 Ti
   Ti51       1.0     0.277778      0.166667      0.100855     Biso  1.000000 Ti
   Ti52       1.0     0.500000      0.611111      0.403419     Biso  1.000000 Ti
   Ti53       1.0     0.833333      0.944444     -0.000000     Biso  1.000000 Ti
   Ti54       1.0     0.500000      0.277778     -0.000000     Biso  1.000000 Ti
   Ti55       1.0     0.611111      0.833333      0.504274     Biso  1.000000 Ti
   Ti56       1.0     0.277778      0.166667      0.504274     Biso  1.000000 Ti
   Ti57       1.0     0.611111      0.500000      0.100855     Biso  1.000000 Ti
   Ti58       1.0     0.833333      0.944444      0.403419     Biso  1.000000 Ti
   Ti59       1.0     0.500000      0.277778      0.403419     Biso  1.000000 Ti
   Ti60       1.0     0.833333      0.611111     -0.000000     Biso  1.000000 Ti
   Ti61       1.0     0.611111      0.500000      0.504274     Biso  1.000000 Ti
   Ti62       1.0     0.944444      0.833333      0.100855     Biso  1.000000 Ti
   Ti63       1.0     0.611111      0.166667      0.100855     Biso  1.000000 Ti
   Ti64       1.0     0.833333      0.611111      0.403419     Biso  1.000000 Ti
   Ti65       1.0     0.833333      0.277778     -0.000000     Biso  1.000000 Ti
   Ti66       1.0     0.944444      0.833333      0.504274     Biso  1.000000 Ti
   Ti67       1.0     0.611111      0.166667      0.504274     Biso  1.000000 Ti
   Ti68       1.0     0.944444      0.500000      0.100855     Biso  1.000000 Ti
   Ti69       1.0     0.833333      0.277778      0.403419     Biso  1.000000 Ti
   Ti70       1.0     0.944444      0.500000      0.504274     Biso  1.000000 Ti
   Ti71       1.0     0.944444      0.166667      0.100855     Biso  1.000000 Ti
   Ti72       1.0     0.944444      0.166667      0.504274     Biso  1.000000 Ti
   Ti73       1.0     0.166666      0.944444      0.201710     Biso  1.000000 Ti
   Ti74       1.0     0.166666      0.611111      0.201710     Biso  1.000000 Ti
   Ti75       1.0     0.277778      0.833333      0.302564     Biso  1.000000 Ti
   Ti76       1.0     0.500000      0.944444      0.201710     Biso  1.000000 Ti
   Ti77       1.0     0.166666      0.277778      0.201710     Biso  1.000000 Ti
   Ti78       1.0     0.277778      0.500000      0.302564     Biso  1.000000 Ti
   Ti79       1.0     0.500000      0.611111      0.201710     Biso  1.000000 Ti
   Ti80       1.0     0.611111      0.833333      0.302564     Biso  1.000000 Ti
   Ti81       1.0     0.277778      0.166667      0.302564     Biso  1.000000 Ti
   Ti82       1.0     0.833333      0.944444      0.201710     Biso  1.000000 Ti
   Ti83       1.0     0.500000      0.277778      0.201710     Biso  1.000000 Ti
   Ti84       1.0     0.611111      0.500000      0.302564     Biso  1.000000 Ti
   Ti85       1.0     0.833333      0.611111      0.201710     Biso  1.000000 Ti
   Ti86       1.0     0.944444      0.833333      0.302564     Biso  1.000000 Ti
   Ti87       1.0     0.611111      0.166667      0.302564     Biso  1.000000 Ti
   Ti88       1.0     0.833333      0.277778      0.201710     Biso  1.000000 Ti
   Ti89       1.0     0.944444      0.500000      0.302564     Biso  1.000000 Ti
   Ti90       1.0     0.944444      0.166667      0.302564     Biso  1.000000 Ti
