
#======================================================================
# CRYSTAL DATA
#----------------------------------------------------------------------
data_VESTA_phase_1

_chemical_name_common                  'Layer_first_Mo'
_cell_length_a                         12.000200
_cell_length_b                         3.506200
_cell_length_c                         28.984900
_cell_angle_alpha                      90.000000
_cell_angle_beta                       90.000000
_cell_angle_gamma                      90.000000
_cell_volume                           1219.542636
_space_group_name_H-M_alt              'P 1'
_space_group_IT_number                 1

loop_
_space_group_symop_operation_xyz
   'x, y, z'

loop_
   _atom_site_label
   _atom_site_occupancy
   _atom_site_fract_x
   _atom_site_fract_y
   _atom_site_fract_z
   _atom_site_adp_type
   _atom_site_U_iso_or_equiv
   _atom_site_type_symbol
   Mo1        1.0     0.003730     2.148210     0.406100    Uiso  ? Mo
   Cr2        1.0     0.378730     0.648210     0.328170    Uiso  ? Cr
   Cr3        1.0     0.128730     0.648210     0.328170    Uiso  ? Cr
   Mo4        1.0     0.253730     2.148210     0.406100    Uiso  ? Mo
   N5         1.0     0.378730     0.648210     0.406100    Uiso  ? N
   N6         1.0     0.003730     2.148210     0.328170    Uiso  ? N
   N7         1.0     0.253730     2.148210     0.328170    Uiso  ? N
   N8         1.0     0.128730     0.648210     0.406100    Uiso  ? N
   Cr9        1.0     0.003730     2.148210     0.250250    Uiso  ? Cr
   Cr10       1.0     0.378730     0.648210     0.172320    Uiso  ? Cr
   Cr11       1.0     0.128730     0.648210     0.172320    Uiso  ? Cr
   Cr12       1.0     0.253730     2.148210     0.250250    Uiso  ? Cr
   N13        1.0     0.378730     0.648210     0.250250    Uiso  ? N
   N14        1.0     0.003730     2.148210     0.172320    Uiso  ? N
   N15        1.0     0.253730     2.148210     0.172320    Uiso  ? N
   N16        1.0     0.128730     0.648210     0.250250    Uiso  ? N
   Mo17       1.0     0.503730     2.148210     0.406100    Uiso  ? Mo
   Cr18       1.0     0.878730     0.648210     0.328170    Uiso  ? Cr
   Cr19       1.0     0.628730     0.648210     0.328170    Uiso  ? Cr
   Mo20       1.0     0.753730     2.148210     0.406100    Uiso  ? Mo
   N21        1.0     0.878730     0.648210     0.406100    Uiso  ? N
   N22        1.0     0.503730     2.148210     0.328170    Uiso  ? N
   N23        1.0     0.753730     2.148210     0.328170    Uiso  ? N
   N24        1.0     0.628730     0.648210     0.406100    Uiso  ? N
   Cr25       1.0     0.503730     2.148210     0.250250    Uiso  ? Cr
   Cr26       1.0     0.878730     0.648210     0.172320    Uiso  ? Cr
   Cr27       1.0     0.628730     0.648210     0.172320    Uiso  ? Cr
   Cr28       1.0     0.753730     2.148210     0.250250    Uiso  ? Cr
   N29        1.0     0.878730     0.648210     0.250250    Uiso  ? N
   N30        1.0     0.503730     2.148210     0.172320    Uiso  ? N
   N31        1.0     0.753730     2.148210     0.172320    Uiso  ? N
   N32        1.0     0.628730     0.648210     0.250250    Uiso  ? N
   Fe33       1.0     0.722170     0.141530     0.800430    Uiso  ? Fe
   Fe34       1.0     0.558040     0.641530     0.787520    Uiso  ? Fe
   Fe35       1.0     0.742890     0.641530     0.748000    Uiso  ? Fe
   Fe36       1.0     0.578750     0.141530     0.735090    Uiso  ? Fe
   Fe37       1.0     0.393900     0.141530     0.774600    Uiso  ? Fe
   Fe38       1.0     0.229770     0.641530     0.761690    Uiso  ? Fe
   Fe39       1.0     0.414620     0.641530     0.722170    Uiso  ? Fe
   Fe40       1.0     0.250480     0.141530     0.709260    Uiso  ? Fe
   Fe41       1.0     0.065630     0.141530     0.748770    Uiso  ? Fe
   Fe42       1.0    -0.098500     0.641530     0.735860    Uiso  ? Fe
   Fe43       1.0     0.086350     0.641530     0.696340    Uiso  ? Fe
   Fe44       1.0    -0.077790     0.141530     0.683430    Uiso  ? Fe
   Fe45       1.0     0.763600     0.141530     0.695580    Uiso  ? Fe
   Fe46       1.0     0.599470     0.641530     0.682660    Uiso  ? Fe
   Fe47       1.0     0.784310     0.641530     0.643150    Uiso  ? Fe
   Fe48       1.0     0.620180     0.141530     0.630230    Uiso  ? Fe
   Fe49       1.0     0.435330     0.141530     0.669750    Uiso  ? Fe
   Fe50       1.0     0.271200     0.641530     0.656830    Uiso  ? Fe
   Fe51       1.0     0.456050     0.641530     0.617320    Uiso  ? Fe
   Fe52       1.0     0.291910     0.141530     0.604400    Uiso  ? Fe
   Fe53       1.0     0.107060     0.141530     0.643920    Uiso  ? Fe
   Fe54       1.0    -0.057070     0.641530     0.631000    Uiso  ? Fe
   Fe55       1.0     0.127780     0.641530     0.591490    Uiso  ? Fe
   Fe56       1.0    -0.036360     0.141530     0.578570    Uiso  ? Fe
   Fe57       1.0     0.805030     0.141530     0.590720    Uiso  ? Fe
   Fe58       1.0     0.640890     0.641530     0.577810    Uiso  ? Fe
   Fe59       1.0     0.825740     0.641530     0.538290    Uiso  ? Fe
   Fe60       1.0     0.661610     0.141530     0.525380    Uiso  ? Fe
   Fe61       1.0     0.476760     0.141530     0.564890    Uiso  ? Fe
   Fe62       1.0     0.312620     0.641530     0.551980    Uiso  ? Fe
   Fe63       1.0     0.497470     0.641530     0.512460    Uiso  ? Fe
   Fe64       1.0     0.333340     0.141530     0.499550    Uiso  ? Fe
   Fe65       1.0     0.148490     0.141530     0.539060    Uiso  ? Fe
   Fe66       1.0    -0.015650     0.641530     0.526150    Uiso  ? Fe
   Fe67       1.0     0.169200     0.641530     0.486630    Uiso  ? Fe
   Fe68       1.0     0.005070     0.141530     0.473720    Uiso  ? Fe
   Cr69       1.0     0.005380     2.131740     0.094510    Uiso  ? Cr
   Cr70       1.0     0.380380     0.631740     0.016580    Uiso  ? Cr
   Cr71       1.0     0.130380     0.631740     0.016580    Uiso  ? Cr
   Cr72       1.0     0.255380     2.131740     0.094510    Uiso  ? Cr
   N73        1.0     0.380380     0.631740     0.094510    Uiso  ? N
   N74        1.0     0.005380     2.131740     0.016580    Uiso  ? N
   N75        1.0     0.255380     2.131740     0.016580    Uiso  ? N
   N76        1.0     0.130380     0.631740     0.094510    Uiso  ? N
   Cr77       1.0     0.505380     2.131740     0.094510    Uiso  ? Cr
   Cr78       1.0     0.880380     0.631740     0.016580    Uiso  ? Cr
   Cr79       1.0     0.630380     0.631740     0.016580    Uiso  ? Cr
   Cr80       1.0     0.755380     2.131740     0.094510    Uiso  ? Cr
   N81        1.0     0.880380     0.631740     0.094510    Uiso  ? N
   N82        1.0     0.505380     2.131740     0.016580    Uiso  ? N
   N83        1.0     0.755380     2.131740     0.016580    Uiso  ? N
   N84        1.0     0.630380     0.631740     0.094510    Uiso  ? N
