# generated using pymatgen
data_Cr3Fe9WN4
_symmetry_space_group_name_H-M   'P 1'
_cell_length_a   3.50615000
_cell_length_b   12.00020000
_cell_length_c   26.74160496
_cell_angle_alpha   90.00000000
_cell_angle_beta   90.00000000
_cell_angle_gamma   90.00000000
_symmetry_Int_Tables_number   1
_chemical_formula_structural   Cr3Fe9WN4
_chemical_formula_sum   'Cr12 Fe36 W4 N16'
_cell_volume   1125.13969087
_cell_formula_units_Z   4
loop_
 _symmetry_equiv_pos_site_id
 _symmetry_equiv_pos_as_xyz
  1  'x, y, z'
loop_
 _atom_site_type_symbol
 _atom_site_label
 _atom_site_symmetry_multiplicity
 _atom_site_fract_x
 _atom_site_fract_y
 _atom_site_fract_z
 _atom_site_occupancy
  Cr  Cr0  1  0.50000000  0.12500000  0.15671426  1
  Cr  Cr1  1  0.50000000  0.37500000  0.15671426  1
  Cr  Cr2  1  0.00000000  0.00000000  0.07836216  1
  Cr  Cr3  1  -0.00000000  0.25000000  0.07836216  1
  Cr  Cr4  1  0.50000000  0.12500000  -0.00000000  1
  Cr  Cr5  1  0.50000000  0.37500000  -0.00000000  1
  Cr  Cr6  1  0.50000000  0.62500000  0.15671426  1
  Cr  Cr7  1  0.50000000  0.87500000  0.15671426  1
  Cr  Cr8  1  -0.00000000  0.50000000  0.07836216  1
  Cr  Cr9  1  -0.00000000  0.75000000  0.07836216  1
  Cr  Cr10  1  0.50000000  0.62500000  -0.00000000  1
  Cr  Cr11  1  0.50000000  0.87500000  -0.00000000  1
  Fe  Fe12  1  0.99332000  0.71844000  0.62604769  1
  Fe  Fe13  1  0.49332000  0.55431000  0.61306610  1
  Fe  Fe14  1  0.49332000  0.73916000  0.57332694  1
  Fe  Fe15  1  0.99332000  0.57502000  0.56034535  1
  Fe  Fe16  1  0.99332000  0.39017000  0.60007445  1
  Fe  Fe17  1  0.49332000  0.22604000  0.58709286  1
  Fe  Fe18  1  0.49332000  0.41089000  0.54735370  1
  Fe  Fe19  1  0.99332000  0.24675000  0.53437211  1
  Fe  Fe20  1  0.99332000  0.06190000  0.57410121  1
  Fe  Fe21  1  0.49332000  0.89777000  0.56111962  1
  Fe  Fe22  1  0.49332000  0.08262000  0.52138046  1
  Fe  Fe23  1  0.99332000  0.91848000  0.50839887  1
  Fe  Fe24  1  0.99332000  0.75987000  0.52061625  1
  Fe  Fe25  1  0.49332000  0.59573000  0.50762460  1
  Fe  Fe26  1  0.49332000  0.78058000  0.46789550  1
  Fe  Fe27  1  0.99332000  0.61645000  0.45490385  1
  Fe  Fe28  1  0.99332000  0.43160000  0.49464301  1
  Fe  Fe29  1  0.49332000  0.26746000  0.48165136  1
  Fe  Fe30  1  0.49332000  0.45231000  0.44192226  1
  Fe  Fe31  1  0.99332000  0.28818000  0.42893061  1
  Fe  Fe32  1  0.99332000  0.10333000  0.46866977  1
  Fe  Fe33  1  0.49332000  0.93920000  0.45567812  1
  Fe  Fe34  1  0.49332000  0.12404000  0.41594902  1
  Fe  Fe35  1  0.99332000  0.95991000  0.40295737  1
  Fe  Fe36  1  0.99332000  0.80130000  0.41517475  1
  Fe  Fe37  1  0.49332000  0.63716000  0.40219316  1
  Fe  Fe38  1  0.49332000  0.82201000  0.36245400  1
  Fe  Fe39  1  0.99332000  0.65788000  0.34947241  1
  Fe  Fe40  1  0.99332000  0.47303000  0.38920151  1
  Fe  Fe41  1  0.49332000  0.30889000  0.37621992  1
  Fe  Fe42  1  0.49332000  0.49374000  0.33648076  1
  Fe  Fe43  1  0.99332000  0.32961000  0.32349917  1
  Fe  Fe44  1  0.99332000  0.14476000  0.36322827  1
  Fe  Fe45  1  0.49332000  0.98062000  0.35024668  1
  Fe  Fe46  1  0.49332000  0.16547000  0.31050752  1
  Fe  Fe47  1  0.99332000  0.00134000  0.29752593  1
  N  N48  1  0.50000000  0.12500000  0.23507642  1
  N  N49  1  0.50000000  0.37500000  0.23507642  1
  N  N50  1  0.00000000  0.00000000  0.15671426  1
  N  N51  1  -0.00000000  0.25000000  0.15671426  1
  N  N52  1  0.50000000  0.12500000  0.07836216  1
  N  N53  1  0.50000000  0.37500000  0.07836216  1
  N  N54  1  0.00000000  0.00000000  0.00000000  1
  N  N55  1  -0.00000000  0.25000000  -0.00000000  1
  N  N56  1  0.50000000  0.62500000  0.23507642  1
  N  N57  1  0.50000000  0.87500000  0.23507642  1
  N  N58  1  -0.00000000  0.50000000  0.15671426  1
  N  N59  1  -0.00000000  0.75000000  0.15671426  1
  N  N60  1  0.50000000  0.62500000  0.07836216  1
  N  N61  1  0.50000000  0.87500000  0.07836216  1
  N  N62  1  -0.00000000  0.50000000  -0.00000000  1
  N  N63  1  -0.00000000  0.75000000  -0.00000000  1
  W  W64  1  0.00000000  0.00000000  0.23507642  1
  W  W65  1  0.00000000  0.25000000  0.23507642  1
  W  W66  1  0.00000000  0.50000000  0.23507642  1
  W  W67  1  0.00000000  0.75000000  0.23507642  1
