#======================================================================

# CRYSTAL DATA

#----------------------------------------------------------------------

data_VESTA_phase_1


_chemical_name_common                  'Optimistic_Structure'
_cell_length_a                         4.75651
_cell_length_b                         4.67543
_cell_length_c                         20.34425
_cell_angle_alpha                      90
_cell_angle_beta                       90
_cell_angle_gamma                      90
_space_group_name_H-M_alt              'P 1'
_space_group_IT_number                 1

loop_
_space_group_symop_operation_xyz
   'x, y, z'

loop_
   _atom_site_label
   _atom_site_occupancy
   _atom_site_fract_x
   _atom_site_fract_y
   _atom_site_fract_z
   _atom_site_adp_type
   _atom_site_B_iso_or_equiv
   _atom_site_type_symbol
   Ti1        1.0     0.333333      0.750000      0.212481     Biso  1.000000 Ti
   Ti2        1.0     0.333333      0.750000      0.070827     Biso  1.000000 Ti
   Ti3        1.0     0.833334      0.750000      0.283308     Biso  1.000000 Ti
   Ti4        1.0     0.833334      0.750000      0.141654     Biso  1.000000 Ti
   Ti5        1.0     0.833334      0.750000     -0.000000     Biso  1.000000 Ti
   Ti6        1.0     0.166666      0.250000      0.283307     Biso  1.000000 Ti
   Ti7        1.0     0.166666      0.250000      0.141654     Biso  1.000000 Ti
   Ti8        1.0     0.166666      0.250000     -0.000000     Biso  1.000000 Ti
   Ti9        1.0     0.666667      0.250000      0.354134     Biso  1.000000 Ti
   Ti10       1.0     0.666667      0.250000      0.212481     Biso  1.000000 Ti
   Ti11       1.0     0.666667      0.250000      0.070827     Biso  1.000000 Ti
   Ti12       1.0     0.666667      0.750000      0.873862     Biso  1.000000 Ti
   Ti13       1.0     0.166667      0.250000      0.873862     Biso  1.000000 Ti
   Ti14       1.0     0.166667      0.750000      0.795145     Biso  1.000000 Ti
   Ti15       1.0     0.666667      0.250000      0.795145     Biso  1.000000 Ti
   Ti16       1.0     0.666667      0.750000      0.716427     Biso  1.000000 Ti
   Ti17       1.0     0.166667      0.250000      0.716427     Biso  1.000000 Ti
   Ti18       1.0     0.166667      0.750000      0.637710     Biso  1.000000 Ti
   Ti19       1.0     0.666667      0.250000      0.637710     Biso  1.000000 Ti
   Ti20       1.0     0.666667      0.750000      0.558992     Biso  1.000000 Ti
   Ti21       1.0     0.166667      0.750000      0.480275     Biso  1.000000 Ti
   Ti22       1.0     0.666667      0.250000      0.480275     Biso  1.000000 Ti
   Sn1        1.0     0.333333      0.750000      0.354134     Biso  1.000000 Sn
